# Ligand S(a)
# Created by GaussView 5.0.8
#
#
#
@<TRIPOS>MOLECULE
Molecule Name
672 660 11 0 0
SMALL
NO_CHARGES


@<TRIPOS>ATOM
      1 O3         10.9280    7.6476    6.5903 O         1 UNK    0.0000
      2 C4         13.5297   11.8284    7.3536 C         1 UNK    0.0000
      3 O5         11.1660    7.7538    8.9148 O         1 UNK    0.0000
      4 C6         12.9444   11.2238    6.3499 C         1 UNK    0.0000
      5 H7         12.9862   11.6130    5.5065 H         1 UNK    0.0000
      6 N8         16.5528   14.1118    7.3361 N         1 UNK    0.0000
      7 C9         12.1629   14.5042    7.3640 C         1 UNK    0.0000
      8 H10        11.5680   13.7902    7.3257 H         1 UNK    0.0000
      9 C11        10.6257    3.5472    5.4505 C         1 UNK    0.0000
     10 H12        11.0727    2.9941    6.1127 H         1 UNK    0.0000
     11 H13        10.8701    3.2031    4.5758 H         1 UNK    0.0000
     12 C14        13.6809   14.2983    7.3780 C         1 UNK    0.0000
     13 C15        12.2723   10.0500    6.4928 C         1 UNK    0.0000
     14 H16        11.8638    9.6609    5.7539 H         1 UNK    0.0000
     15 C17        12.3141    5.0491    0.8016 C         1 UNK    0.0000
     16 C18        12.1533    6.2165    1.5369 C         1 UNK    0.0000
     17 H19        12.0343    7.0302    1.0978 H         1 UNK    0.0000
     18 C20        12.1726    6.1747    2.9239 C         1 UNK    0.0000
     19 H21        12.0632    6.9562    3.4153 H         1 UNK    0.0000
     20 C22        12.3494    4.9623    3.5791 C         1 UNK    0.0000
     21 C23        12.5102    3.7917    2.8472 C         1 UNK    0.0000
     22 H24        12.6292    2.9812    3.2864 H         1 UNK    0.0000
     23 C25        12.4942    3.8335    1.4567 C         1 UNK    0.0000
     24 H26        12.6003    3.0520    0.9653 H         1 UNK    0.0000
     25 C27        14.3530   13.1084    7.3501 C         1 UNK    0.0000
     26 C28         7.8792    8.3841    3.5129 C         1 UNK    0.0000
     27 C29         9.0723    8.1300    2.8472 C         1 UNK    0.0000
     28 H30         9.8603    8.0143    3.3282 H         1 UNK    0.0000
     29 C31         9.0916    8.0496    1.4602 C         1 UNK    0.0000
     30 H32         9.8892    7.8792    1.0141 H         1 UNK    0.0000
     31 C33         7.9178    8.2233    0.7353 C         1 UNK    0.0000
     32 C34         6.7214    8.4774    1.4010 C         1 UNK    0.0000
     33 H35         5.9367    8.5932    0.9200 H         1 UNK    0.0000
     34 C36         6.7054    8.5578    2.7915 C         1 UNK    0.0000
     35 H37         5.9046    8.7250    3.2341 H         1 UNK    0.0000
     36 C38        12.6582   10.0725    8.7650 C         1 UNK    0.0000
     37 H39        12.5488    9.7284    9.6223 H         1 UNK    0.0000
     38 C40         9.1399    3.3736    5.6248 C         1 UNK    0.0000
     39 H41         8.8794    2.6146    5.0776 H         1 UNK    0.0000
     40 H42         8.9919    3.1131    6.5483 H         1 UNK    0.0000
     41 C43        16.3566   11.7384    7.4093 C         1 UNK    0.0000
     42 H44        15.9900   10.8829    7.4372 H         1 UNK    0.0000
     43 N45         8.2523    4.3931    5.3495 N         1 UNK    0.0000
     44 C46        15.7230   13.0763    7.3954 C         1 UNK    0.0000
     45 C47        11.2367    8.0432    7.6881 C         1 UNK    0.0000
     46 C48        12.1951    9.4486    7.6846 C         1 UNK    0.0000
     47 C49        13.3368   11.3203    8.5141 C         1 UNK    0.0000
     48 H50        13.6616   11.7931    9.2494 H         1 UNK    0.0000
     49 C51         8.0529    8.4549    4.8720 C         1 UNK    0.0000
     50 H52         7.4676    9.1495    5.2101 H         1 UNK    0.0000
     51 H53         8.9630    8.7475    5.0393 H         1 UNK    0.0000
     52 C54         8.5835    4.2612    3.6871 C         1 UNK    0.0000
     53 H55         8.1976    5.0073    3.2236 H         1 UNK    0.0000
     54 H56         8.2072    3.4443    3.3491 H         1 UNK    0.0000
     55 H57         9.5322    4.2548    3.5477 H         1 UNK    0.0000
     56 N58        11.1724    4.9462    5.5690 N         1 UNK    0.0000
     57 C59         6.4738    6.4995    5.4714 C         1 UNK    0.0000
     58 H60         5.8338    6.7343    6.1615 H         1 UNK    0.0000
     59 H61         6.0718    6.6346    4.6002 H         1 UNK    0.0000
     60 C62         6.9594    5.1424    5.6318 C         1 UNK    0.0000
     61 H63         6.2937    4.6150    5.1648 H         1 UNK    0.0000
     62 H64         6.8051    4.9655    6.5727 H         1 UNK    0.0000
     63 C65         7.8277    7.7409    7.3220 C         1 UNK    0.0000
     64 H66         7.6959    6.9498    7.8517 H         1 UNK    0.0000
     65 H67         7.1170    8.3648    7.4928 H         1 UNK    0.0000
     66 H68         8.6671    8.1429    7.5555 H         1 UNK    0.0000
     67 C69        11.6033    4.7758    7.2697 C         1 UNK    0.0000
     68 H70        10.8058    4.6793    7.7925 H         1 UNK    0.0000
     69 H71        12.0825    5.5572    7.5590 H         1 UNK    0.0000
     70 H72        12.1565    4.0007    7.3812 H         1 UNK    0.0000
     71 N73         7.8342    7.3132    5.6248 N         1 UNK    0.0000
     72 C74        12.4749    4.9366    5.1961 C         1 UNK    0.0000
     73 H75        12.9251    4.1358    5.5063 H         1 UNK    0.0000
     74 H76        12.9444    5.7180    5.5272 H         1 UNK    0.0000
     75 O77         7.6476   21.2320    6.5903 O         1 UNK    0.0000
     76 C78        11.8284   18.6303    7.3536 C         1 UNK    0.0000
     77 O79         7.7538   20.9940    8.9148 O         1 UNK    0.0000
     78 C80        11.2238   19.2156    6.3499 C         1 UNK    0.0000
     79 H81        11.6130   19.1738    5.5065 H         1 UNK    0.0000
     80 N82        14.1118   15.6072    7.3361 N         1 UNK    0.0000
     81 C83        14.5042   19.9971    7.3640 C         1 UNK    0.0000
     82 H84        13.7902   20.5920    7.3257 H         1 UNK    0.0000
     83 C85        14.2983   18.4791    7.3780 C         1 UNK    0.0000
     84 C86        10.0500   19.8877    6.4928 C         1 UNK    0.0000
     85 H87         9.6609   20.2962    5.7539 H         1 UNK    0.0000
     86 C88        13.1084   17.8070    7.3501 C         1 UNK    0.0000
     87 C89        10.0725   19.5018    8.7650 C         1 UNK    0.0000
     88 H90         9.7284   19.6112    9.6223 H         1 UNK    0.0000
     89 C91        11.7384   15.8034    7.4093 C         1 UNK    0.0000
     90 H92        10.8829   16.1700    7.4372 H         1 UNK    0.0000
     91 C93        13.0763   16.4370    7.3954 C         1 UNK    0.0000
     92 C94         8.0432   20.9233    7.6881 C         1 UNK    0.0000
     93 C95         9.4486   19.9649    7.6846 C         1 UNK    0.0000
     94 C96        11.3203   18.8232    8.5141 C         1 UNK    0.0000
     95 H97        11.7931   18.4984    9.2494 H         1 UNK    0.0000
     96 O98        24.5124   10.9280    6.5903 O         1 UNK    0.0000
     97 C99        20.3316   13.5297    7.3536 C         1 UNK    0.0000
     98 O100       24.4062   11.1660    8.9148 O         1 UNK    0.0000
     99 C101       20.9362   12.9444    6.3499 C         1 UNK    0.0000
    100 H102       20.5470   12.9862    5.5065 H         1 UNK    0.0000
    101 N103       18.0482   16.5528    7.3361 N         1 UNK    0.0000
    102 C104       17.6558   12.1629    7.3640 C         1 UNK    0.0000
    103 H105       18.3698   11.5680    7.3257 H         1 UNK    0.0000
    104 C106       17.8617   13.6809    7.3780 C         1 UNK    0.0000
    105 C107       22.1100   12.2723    6.4928 C         1 UNK    0.0000
    106 H108       22.4991   11.8638    5.7539 H         1 UNK    0.0000
    107 C109       19.0516   14.3530    7.3501 C         1 UNK    0.0000
    108 C110       22.0875   12.6582    8.7650 C         1 UNK    0.0000
    109 H111       22.4316   12.5488    9.6223 H         1 UNK    0.0000
    110 C112       20.4216   16.3566    7.4093 C         1 UNK    0.0000
    111 H113       21.2771   15.9900    7.4372 H         1 UNK    0.0000
    112 C114       19.0837   15.7230    7.3954 C         1 UNK    0.0000
    113 C115       24.1168   11.2367    7.6881 C         1 UNK    0.0000
    114 C116       22.7114   12.1951    7.6846 C         1 UNK    0.0000
    115 C117       20.8397   13.3368    8.5141 C         1 UNK    0.0000
    116 H118       20.3669   13.6616    9.2494 H         1 UNK    0.0000
    117 O119       21.2320   24.5124    6.5903 O         1 UNK    0.0000
    118 C120       18.6303   20.3316    7.3536 C         1 UNK    0.0000
    119 O121       20.9940   24.4062    8.9148 O         1 UNK    0.0000
    120 C122       19.2156   20.9362    6.3499 C         1 UNK    0.0000
    121 H123       19.1738   20.5470    5.5065 H         1 UNK    0.0000
    122 N124       15.6072   18.0482    7.3361 N         1 UNK    0.0000
    123 C125       19.9971   17.6558    7.3640 C         1 UNK    0.0000
    124 H126       20.5920   18.3698    7.3257 H         1 UNK    0.0000
    125 C127       18.4791   17.8617    7.3780 C         1 UNK    0.0000
    126 C128       19.8877   22.1100    6.4928 C         1 UNK    0.0000
    127 H129       20.2962   22.4991    5.7539 H         1 UNK    0.0000
    128 C130       17.8070   19.0516    7.3501 C         1 UNK    0.0000
    129 C131       19.5018   22.0875    8.7650 C         1 UNK    0.0000
    130 H132       19.6112   22.4316    9.6223 H         1 UNK    0.0000
    131 C133       15.8034   20.4216    7.4093 C         1 UNK    0.0000
    132 H134       16.1700   21.2771    7.4372 H         1 UNK    0.0000
    133 C135       16.4370   19.0837    7.3954 C         1 UNK    0.0000
    134 C136       20.9233   24.1168    7.6881 C         1 UNK    0.0000
    135 C137       19.9649   22.7114    7.6846 C         1 UNK    0.0000
    136 C138       18.8232   20.8397    8.5141 C         1 UNK    0.0000
    137 H139       18.4984   20.3669    9.2494 H         1 UNK    0.0000
    138 C140       10.6257    3.5472   -5.4505 C         1 UNK    0.0000
    139 H141       11.0727    2.9941   -6.1127 H         1 UNK    0.0000
    140 H142       10.8701    3.2031   -4.5758 H         1 UNK    0.0000
    141 C143       12.3141    5.0491   -0.8015 C         1 UNK    0.0000
    142 C144       12.1533    6.2165   -1.5369 C         1 UNK    0.0000
    143 H145       12.0343    7.0302   -1.0978 H         1 UNK    0.0000
    144 C146       12.1726    6.1747   -2.9239 C         1 UNK    0.0000
    145 H147       12.0632    6.9562   -3.4153 H         1 UNK    0.0000
    146 C148       12.3494    4.9623   -3.5791 C         1 UNK    0.0000
    147 C149       12.5102    3.7917   -2.8472 C         1 UNK    0.0000
    148 H150       12.6292    2.9812   -3.2864 H         1 UNK    0.0000
    149 C151       12.4942    3.8335   -1.4567 C         1 UNK    0.0000
    150 H152       12.6003    3.0520   -0.9653 H         1 UNK    0.0000
    151 C153        7.8792    8.3841   -3.5129 C         1 UNK    0.0000
    152 C154        9.0723    8.1300   -2.8472 C         1 UNK    0.0000
    153 H155        9.8603    8.0143   -3.3282 H         1 UNK    0.0000
    154 C156        9.0916    8.0496   -1.4602 C         1 UNK    0.0000
    155 H157        9.8892    7.8792   -1.0141 H         1 UNK    0.0000
    156 C158        7.9178    8.2233   -0.7353 C         1 UNK    0.0000
    157 C159        6.7214    8.4774   -1.4010 C         1 UNK    0.0000
    158 H160        5.9367    8.5932   -0.9200 H         1 UNK    0.0000
    159 C161        6.7054    8.5578   -2.7915 C         1 UNK    0.0000
    160 H162        5.9046    8.7250   -3.2341 H         1 UNK    0.0000
    161 C163        9.1399    3.3736   -5.6248 C         1 UNK    0.0000
    162 H164        8.8794    2.6146   -5.0776 H         1 UNK    0.0000
    163 H165        8.9919    3.1131   -6.5483 H         1 UNK    0.0000
    164 N166        8.2523    4.3931   -5.3495 N         1 UNK    0.0000
    165 C167        8.0529    8.4549   -4.8720 C         1 UNK    0.0000
    166 H168        7.4676    9.1495   -5.2101 H         1 UNK    0.0000
    167 H169        8.9630    8.7475   -5.0393 H         1 UNK    0.0000
    168 C170        8.5835    4.2612   -3.6871 C         1 UNK    0.0000
    169 H171        8.1976    5.0073   -3.2236 H         1 UNK    0.0000
    170 H172        8.2072    3.4443   -3.3491 H         1 UNK    0.0000
    171 H173        9.5322    4.2548   -3.5477 H         1 UNK    0.0000
    172 N174       11.1724    4.9462   -5.5690 N         1 UNK    0.0000
    173 C175        6.4738    6.4995   -5.4714 C         1 UNK    0.0000
    174 H176        5.8338    6.7343   -6.1615 H         1 UNK    0.0000
    175 H177        6.0718    6.6346   -4.6002 H         1 UNK    0.0000
    176 C178        6.9594    5.1424   -5.6318 C         1 UNK    0.0000
    177 H179        6.2937    4.6150   -5.1648 H         1 UNK    0.0000
    178 H180        6.8051    4.9655   -6.5727 H         1 UNK    0.0000
    179 C181        7.8277    7.7409   -7.3220 C         1 UNK    0.0000
    180 H182        7.6959    6.9498   -7.8517 H         1 UNK    0.0000
    181 H183        7.1170    8.3648   -7.4927 H         1 UNK    0.0000
    182 H184        8.6671    8.1429   -7.5555 H         1 UNK    0.0000
    183 C185       11.6033    4.7758   -7.2697 C         1 UNK    0.0000
    184 H186       10.8058    4.6793   -7.7925 H         1 UNK    0.0000
    185 H187       12.0825    5.5572   -7.5590 H         1 UNK    0.0000
    186 H188       12.1565    4.0007   -7.3812 H         1 UNK    0.0000
    187 N189        7.8342    7.3132   -5.6248 N         1 UNK    0.0000
    188 C190       12.4749    4.9366   -5.1961 C         1 UNK    0.0000
    189 H191       12.9251    4.1358   -5.5063 H         1 UNK    0.0000
    190 H192       12.9444    5.7180   -5.5272 H         1 UNK    0.0000
    191 C194       21.5343   28.6128    5.4505 C         1 UNK    0.0000
    192 H195       21.0873   29.1659    6.1127 H         1 UNK    0.0000
    193 H196       21.2899   28.9569    4.5758 H         1 UNK    0.0000
    194 C197       19.8459   27.1109    0.8016 C         1 UNK    0.0000
    195 C198       20.0067   25.9435    1.5369 C         1 UNK    0.0000
    196 H199       20.1257   25.1298    1.0978 H         1 UNK    0.0000
    197 C200       19.9874   25.9853    2.9239 C         1 UNK    0.0000
    198 H201       20.0968   25.2038    3.4153 H         1 UNK    0.0000
    199 C202       19.8106   27.1977    3.5791 C         1 UNK    0.0000
    200 C203       19.6498   28.3683    2.8472 C         1 UNK    0.0000
    201 H204       19.5308   29.1788    3.2864 H         1 UNK    0.0000
    202 C205       19.6658   28.3265    1.4567 C         1 UNK    0.0000
    203 H206       19.5597   29.1080    0.9653 H         1 UNK    0.0000
    204 C207       24.2808   23.7759    3.5129 C         1 UNK    0.0000
    205 C208       23.0877   24.0300    2.8472 C         1 UNK    0.0000
    206 H209       22.2997   24.1457    3.3282 H         1 UNK    0.0000
    207 C210       23.0684   24.1104    1.4602 C         1 UNK    0.0000
    208 H211       22.2708   24.2808    1.0141 H         1 UNK    0.0000
    209 C212       24.2422   23.9367    0.7353 C         1 UNK    0.0000
    210 C213       25.4386   23.6826    1.4010 C         1 UNK    0.0000
    211 H214       26.2233   23.5668    0.9200 H         1 UNK    0.0000
    212 C215       25.4546   23.6022    2.7915 C         1 UNK    0.0000
    213 H216       26.2554   23.4350    3.2341 H         1 UNK    0.0000
    214 C217       23.0201   28.7864    5.6248 C         1 UNK    0.0000
    215 H218       23.2806   29.5454    5.0776 H         1 UNK    0.0000
    216 H219       23.1681   29.0469    6.5483 H         1 UNK    0.0000
    217 N220       23.9077   27.7669    5.3495 N         1 UNK    0.0000
    218 C221       24.1071   23.7051    4.8720 C         1 UNK    0.0000
    219 H222       24.6924   23.0105    5.2101 H         1 UNK    0.0000
    220 H223       23.1970   23.4125    5.0393 H         1 UNK    0.0000
    221 C224       23.5765   27.8988    3.6871 C         1 UNK    0.0000
    222 H225       23.9624   27.1527    3.2236 H         1 UNK    0.0000
    223 H226       23.9528   28.7157    3.3491 H         1 UNK    0.0000
    224 H227       22.6278   27.9052    3.5477 H         1 UNK    0.0000
    225 N228       20.9876   27.2138    5.5690 N         1 UNK    0.0000
    226 C229       25.6862   25.6605    5.4715 C         1 UNK    0.0000
    227 H230       26.3262   25.4257    6.1615 H         1 UNK    0.0000
    228 H231       26.0882   25.5254    4.6002 H         1 UNK    0.0000
    229 C232       25.2006   27.0176    5.6318 C         1 UNK    0.0000
    230 H233       25.8663   27.5450    5.1648 H         1 UNK    0.0000
    231 H234       25.3549   27.1945    6.5727 H         1 UNK    0.0000
    232 C235       24.3323   24.4191    7.3220 C         1 UNK    0.0000
    233 H236       24.4641   25.2102    7.8517 H         1 UNK    0.0000
    234 H237       25.0430   23.7952    7.4928 H         1 UNK    0.0000
    235 H238       23.4929   24.0171    7.5555 H         1 UNK    0.0000
    236 C239       20.5567   27.3842    7.2697 C         1 UNK    0.0000
    237 H240       21.3542   27.4807    7.7925 H         1 UNK    0.0000
    238 H241       20.0775   26.6028    7.5590 H         1 UNK    0.0000
    239 H242       20.0035   28.1593    7.3812 H         1 UNK    0.0000
    240 N243       24.3258   24.8468    5.6248 N         1 UNK    0.0000
    241 C244       19.6851   27.2234    5.1961 C         1 UNK    0.0000
    242 H245       19.2349   28.0242    5.5063 H         1 UNK    0.0000
    243 H246       19.2156   26.4420    5.5272 H         1 UNK    0.0000
    244 C247       21.5343   28.6128   -5.4505 C         1 UNK    0.0000
    245 H248       21.0873   29.1659   -6.1127 H         1 UNK    0.0000
    246 H249       21.2899   28.9569   -4.5758 H         1 UNK    0.0000
    247 C250       19.8459   27.1109   -0.8015 C         1 UNK    0.0000
    248 C251       20.0067   25.9435   -1.5369 C         1 UNK    0.0000
    249 H252       20.1257   25.1298   -1.0978 H         1 UNK    0.0000
    250 C253       19.9874   25.9853   -2.9239 C         1 UNK    0.0000
    251 H254       20.0968   25.2038   -3.4153 H         1 UNK    0.0000
    252 C255       19.8106   27.1977   -3.5791 C         1 UNK    0.0000
    253 C256       19.6498   28.3683   -2.8472 C         1 UNK    0.0000
    254 H257       19.5308   29.1788   -3.2864 H         1 UNK    0.0000
    255 C258       19.6658   28.3265   -1.4567 C         1 UNK    0.0000
    256 H259       19.5597   29.1080   -0.9653 H         1 UNK    0.0000
    257 C260       24.2808   23.7759   -3.5129 C         1 UNK    0.0000
    258 C261       23.0877   24.0300   -2.8472 C         1 UNK    0.0000
    259 H262       22.2997   24.1457   -3.3282 H         1 UNK    0.0000
    260 C263       23.0684   24.1104   -1.4602 C         1 UNK    0.0000
    261 H264       22.2708   24.2808   -1.0141 H         1 UNK    0.0000
    262 C265       24.2422   23.9367   -0.7353 C         1 UNK    0.0000
    263 C266       25.4386   23.6826   -1.4010 C         1 UNK    0.0000
    264 H267       26.2233   23.5668   -0.9200 H         1 UNK    0.0000
    265 C268       25.4546   23.6022   -2.7915 C         1 UNK    0.0000
    266 H269       26.2554   23.4350   -3.2341 H         1 UNK    0.0000
    267 C270       23.0201   28.7864   -5.6248 C         1 UNK    0.0000
    268 H271       23.2806   29.5454   -5.0776 H         1 UNK    0.0000
    269 H272       23.1681   29.0469   -6.5483 H         1 UNK    0.0000
    270 N273       23.9077   27.7669   -5.3495 N         1 UNK    0.0000
    271 C274       24.1071   23.7051   -4.8720 C         1 UNK    0.0000
    272 H275       24.6924   23.0105   -5.2101 H         1 UNK    0.0000
    273 H276       23.1970   23.4125   -5.0393 H         1 UNK    0.0000
    274 C277       23.5765   27.8988   -3.6871 C         1 UNK    0.0000
    275 H278       23.9624   27.1527   -3.2236 H         1 UNK    0.0000
    276 H279       23.9528   28.7157   -3.3491 H         1 UNK    0.0000
    277 H280       22.6278   27.9052   -3.5477 H         1 UNK    0.0000
    278 N281       20.9876   27.2138   -5.5690 N         1 UNK    0.0000
    279 C282       25.6862   25.6605   -5.4714 C         1 UNK    0.0000
    280 H283       26.3262   25.4257   -6.1615 H         1 UNK    0.0000
    281 H284       26.0882   25.5254   -4.6002 H         1 UNK    0.0000
    282 C285       25.2006   27.0176   -5.6318 C         1 UNK    0.0000
    283 H286       25.8663   27.5450   -5.1648 H         1 UNK    0.0000
    284 H287       25.3549   27.1945   -6.5727 H         1 UNK    0.0000
    285 C288       24.3323   24.4191   -7.3220 C         1 UNK    0.0000
    286 H289       24.4641   25.2102   -7.8517 H         1 UNK    0.0000
    287 H290       25.0430   23.7952   -7.4927 H         1 UNK    0.0000
    288 H291       23.4929   24.0171   -7.5555 H         1 UNK    0.0000
    289 C292       20.5567   27.3842   -7.2697 C         1 UNK    0.0000
    290 H293       21.3542   27.4807   -7.7925 H         1 UNK    0.0000
    291 H294       20.0775   26.6028   -7.5590 H         1 UNK    0.0000
    292 H295       20.0035   28.1593   -7.3812 H         1 UNK    0.0000
    293 N296       24.3258   24.8468   -5.6248 N         1 UNK    0.0000
    294 C297       19.6851   27.2234   -5.1961 C         1 UNK    0.0000
    295 H298       19.2349   28.0242   -5.5063 H         1 UNK    0.0000
    296 H299       19.2156   26.4420   -5.5272 H         1 UNK    0.0000
    297 C301        3.5472   21.5343    5.4505 C         1 UNK    0.0000
    298 H302        2.9941   21.0873    6.1127 H         1 UNK    0.0000
    299 H303        3.2031   21.2899    4.5758 H         1 UNK    0.0000
    300 C304        5.0491   19.8459    0.8016 C         1 UNK    0.0000
    301 C305        6.2165   20.0067    1.5369 C         1 UNK    0.0000
    302 H306        7.0302   20.1257    1.0978 H         1 UNK    0.0000
    303 C307        6.1747   19.9874    2.9239 C         1 UNK    0.0000
    304 H308        6.9562   20.0968    3.4153 H         1 UNK    0.0000
    305 C309        4.9623   19.8106    3.5791 C         1 UNK    0.0000
    306 C310        3.7917   19.6498    2.8472 C         1 UNK    0.0000
    307 H311        2.9812   19.5308    3.2864 H         1 UNK    0.0000
    308 C312        3.8335   19.6658    1.4567 C         1 UNK    0.0000
    309 H313        3.0520   19.5597    0.9653 H         1 UNK    0.0000
    310 C314        8.3841   24.2808    3.5129 C         1 UNK    0.0000
    311 C315        8.1300   23.0877    2.8472 C         1 UNK    0.0000
    312 H316        8.0143   22.2997    3.3282 H         1 UNK    0.0000
    313 C317        8.0496   23.0684    1.4602 C         1 UNK    0.0000
    314 H318        7.8792   22.2708    1.0141 H         1 UNK    0.0000
    315 C319        8.2233   24.2422    0.7353 C         1 UNK    0.0000
    316 C320        8.4774   25.4386    1.4010 C         1 UNK    0.0000
    317 H321        8.5932   26.2233    0.9200 H         1 UNK    0.0000
    318 C322        8.5578   25.4546    2.7915 C         1 UNK    0.0000
    319 H323        8.7250   26.2554    3.2341 H         1 UNK    0.0000
    320 C324        3.3736   23.0201    5.6248 C         1 UNK    0.0000
    321 H325        2.6146   23.2806    5.0776 H         1 UNK    0.0000
    322 H326        3.1131   23.1681    6.5483 H         1 UNK    0.0000
    323 N327        4.3931   23.9077    5.3495 N         1 UNK    0.0000
    324 C328        8.4549   24.1071    4.8720 C         1 UNK    0.0000
    325 H329        9.1495   24.6924    5.2101 H         1 UNK    0.0000
    326 H330        8.7475   23.1970    5.0393 H         1 UNK    0.0000
    327 C331        4.2612   23.5765    3.6871 C         1 UNK    0.0000
    328 H332        5.0073   23.9624    3.2236 H         1 UNK    0.0000
    329 H333        3.4443   23.9528    3.3491 H         1 UNK    0.0000
    330 H334        4.2548   22.6278    3.5477 H         1 UNK    0.0000
    331 N335        4.9462   20.9876    5.5690 N         1 UNK    0.0000
    332 C336        6.4995   25.6862    5.4715 C         1 UNK    0.0000
    333 H337        6.7343   26.3262    6.1615 H         1 UNK    0.0000
    334 H338        6.6346   26.0882    4.6002 H         1 UNK    0.0000
    335 C339        5.1424   25.2006    5.6318 C         1 UNK    0.0000
    336 H340        4.6150   25.8663    5.1648 H         1 UNK    0.0000
    337 H341        4.9655   25.3549    6.5727 H         1 UNK    0.0000
    338 C342        7.7409   24.3323    7.3220 C         1 UNK    0.0000
    339 H343        6.9498   24.4641    7.8517 H         1 UNK    0.0000
    340 H344        8.3648   25.0430    7.4928 H         1 UNK    0.0000
    341 H345        8.1429   23.4929    7.5555 H         1 UNK    0.0000
    342 C346        4.7758   20.5567    7.2697 C         1 UNK    0.0000
    343 H347        4.6793   21.3542    7.7925 H         1 UNK    0.0000
    344 H348        5.5572   20.0775    7.5590 H         1 UNK    0.0000
    345 H349        4.0007   20.0035    7.3812 H         1 UNK    0.0000
    346 N350        7.3132   24.3258    5.6248 N         1 UNK    0.0000
    347 C351        4.9366   19.6851    5.1961 C         1 UNK    0.0000
    348 H352        4.1358   19.2349    5.5063 H         1 UNK    0.0000
    349 H353        5.7180   19.2156    5.5272 H         1 UNK    0.0000
    350 C354        3.5472   21.5343   -5.4505 C         1 UNK    0.0000
    351 H355        2.9941   21.0873   -6.1127 H         1 UNK    0.0000
    352 H356        3.2031   21.2899   -4.5758 H         1 UNK    0.0000
    353 C357        5.0491   19.8459   -0.8015 C         1 UNK    0.0000
    354 C358        6.2165   20.0067   -1.5369 C         1 UNK    0.0000
    355 H359        7.0302   20.1257   -1.0978 H         1 UNK    0.0000
    356 C360        6.1747   19.9874   -2.9239 C         1 UNK    0.0000
    357 H361        6.9562   20.0968   -3.4153 H         1 UNK    0.0000
    358 C362        4.9623   19.8106   -3.5791 C         1 UNK    0.0000
    359 C363        3.7917   19.6498   -2.8472 C         1 UNK    0.0000
    360 H364        2.9812   19.5308   -3.2864 H         1 UNK    0.0000
    361 C365        3.8335   19.6658   -1.4567 C         1 UNK    0.0000
    362 H366        3.0520   19.5597   -0.9653 H         1 UNK    0.0000
    363 C367        8.3841   24.2808   -3.5129 C         1 UNK    0.0000
    364 C368        8.1300   23.0877   -2.8472 C         1 UNK    0.0000
    365 H369        8.0143   22.2997   -3.3282 H         1 UNK    0.0000
    366 C370        8.0496   23.0684   -1.4602 C         1 UNK    0.0000
    367 H371        7.8792   22.2708   -1.0141 H         1 UNK    0.0000
    368 C372        8.2233   24.2422   -0.7353 C         1 UNK    0.0000
    369 C373        8.4774   25.4386   -1.4010 C         1 UNK    0.0000
    370 H374        8.5932   26.2233   -0.9200 H         1 UNK    0.0000
    371 C375        8.5578   25.4546   -2.7915 C         1 UNK    0.0000
    372 H376        8.7250   26.2554   -3.2341 H         1 UNK    0.0000
    373 C377        3.3736   23.0201   -5.6248 C         1 UNK    0.0000
    374 H378        2.6146   23.2806   -5.0776 H         1 UNK    0.0000
    375 H379        3.1131   23.1681   -6.5483 H         1 UNK    0.0000
    376 N380        4.3931   23.9077   -5.3495 N         1 UNK    0.0000
    377 C381        8.4549   24.1071   -4.8720 C         1 UNK    0.0000
    378 H382        9.1495   24.6924   -5.2101 H         1 UNK    0.0000
    379 H383        8.7475   23.1970   -5.0393 H         1 UNK    0.0000
    380 C384        4.2612   23.5765   -3.6871 C         1 UNK    0.0000
    381 H385        5.0073   23.9624   -3.2236 H         1 UNK    0.0000
    382 H386        3.4443   23.9528   -3.3491 H         1 UNK    0.0000
    383 H387        4.2548   22.6278   -3.5477 H         1 UNK    0.0000
    384 N388        4.9462   20.9876   -5.5690 N         1 UNK    0.0000
    385 C389        6.4995   25.6862   -5.4714 C         1 UNK    0.0000
    386 H390        6.7343   26.3262   -6.1615 H         1 UNK    0.0000
    387 H391        6.6346   26.0882   -4.6002 H         1 UNK    0.0000
    388 C392        5.1424   25.2006   -5.6318 C         1 UNK    0.0000
    389 H393        4.6150   25.8663   -5.1648 H         1 UNK    0.0000
    390 H394        4.9655   25.3549   -6.5727 H         1 UNK    0.0000
    391 C395        7.7409   24.3323   -7.3220 C         1 UNK    0.0000
    392 H396        6.9498   24.4641   -7.8517 H         1 UNK    0.0000
    393 H397        8.3648   25.0430   -7.4927 H         1 UNK    0.0000
    394 H398        8.1429   23.4929   -7.5555 H         1 UNK    0.0000
    395 C399        4.7758   20.5567   -7.2697 C         1 UNK    0.0000
    396 H400        4.6793   21.3542   -7.7925 H         1 UNK    0.0000
    397 H401        5.5572   20.0775   -7.5590 H         1 UNK    0.0000
    398 H402        4.0007   20.0035   -7.3812 H         1 UNK    0.0000
    399 N403        7.3132   24.3258   -5.6248 N         1 UNK    0.0000
    400 C404        4.9366   19.6851   -5.1961 C         1 UNK    0.0000
    401 H405        4.1358   19.2349   -5.5063 H         1 UNK    0.0000
    402 H406        5.7180   19.2156   -5.5272 H         1 UNK    0.0000
    403 C408       28.6128   10.6257    5.4505 C         1 UNK    0.0000
    404 H409       29.1659   11.0727    6.1127 H         1 UNK    0.0000
    405 H410       28.9569   10.8701    4.5758 H         1 UNK    0.0000
    406 C411       27.1109   12.3141    0.8016 C         1 UNK    0.0000
    407 C412       25.9435   12.1533    1.5369 C         1 UNK    0.0000
    408 H413       25.1298   12.0343    1.0978 H         1 UNK    0.0000
    409 C414       25.9853   12.1726    2.9239 C         1 UNK    0.0000
    410 H415       25.2038   12.0632    3.4153 H         1 UNK    0.0000
    411 C416       27.1977   12.3494    3.5791 C         1 UNK    0.0000
    412 C417       28.3683   12.5102    2.8472 C         1 UNK    0.0000
    413 H418       29.1788   12.6292    3.2864 H         1 UNK    0.0000
    414 C419       28.3265   12.4942    1.4567 C         1 UNK    0.0000
    415 H420       29.1080   12.6003    0.9653 H         1 UNK    0.0000
    416 C421       23.7759    7.8792    3.5129 C         1 UNK    0.0000
    417 C422       24.0300    9.0723    2.8472 C         1 UNK    0.0000
    418 H423       24.1457    9.8603    3.3282 H         1 UNK    0.0000
    419 C424       24.1104    9.0916    1.4602 C         1 UNK    0.0000
    420 H425       24.2808    9.8892    1.0141 H         1 UNK    0.0000
    421 C426       23.9367    7.9178    0.7353 C         1 UNK    0.0000
    422 C427       23.6826    6.7214    1.4010 C         1 UNK    0.0000
    423 H428       23.5668    5.9367    0.9200 H         1 UNK    0.0000
    424 C429       23.6022    6.7054    2.7915 C         1 UNK    0.0000
    425 H430       23.4350    5.9046    3.2341 H         1 UNK    0.0000
    426 C431       28.7864    9.1399    5.6248 C         1 UNK    0.0000
    427 H432       29.5454    8.8794    5.0776 H         1 UNK    0.0000
    428 H433       29.0469    8.9919    6.5483 H         1 UNK    0.0000
    429 N434       27.7669    8.2523    5.3495 N         1 UNK    0.0000
    430 C435       23.7051    8.0529    4.8720 C         1 UNK    0.0000
    431 H436       23.0105    7.4676    5.2101 H         1 UNK    0.0000
    432 H437       23.4125    8.9630    5.0393 H         1 UNK    0.0000
    433 C438       27.8988    8.5835    3.6871 C         1 UNK    0.0000
    434 H439       27.1527    8.1976    3.2236 H         1 UNK    0.0000
    435 H440       28.7157    8.2072    3.3491 H         1 UNK    0.0000
    436 H441       27.9052    9.5322    3.5477 H         1 UNK    0.0000
    437 N442       27.2138   11.1724    5.5690 N         1 UNK    0.0000
    438 C443       25.6605    6.4738    5.4714 C         1 UNK    0.0000
    439 H444       25.4257    5.8338    6.1615 H         1 UNK    0.0000
    440 H445       25.5254    6.0718    4.6002 H         1 UNK    0.0000
    441 C446       27.0176    6.9594    5.6318 C         1 UNK    0.0000
    442 H447       27.5450    6.2937    5.1648 H         1 UNK    0.0000
    443 H448       27.1945    6.8051    6.5727 H         1 UNK    0.0000
    444 C449       24.4191    7.8277    7.3220 C         1 UNK    0.0000
    445 H450       25.2102    7.6959    7.8517 H         1 UNK    0.0000
    446 H451       23.7952    7.1170    7.4927 H         1 UNK    0.0000
    447 H452       24.0171    8.6671    7.5555 H         1 UNK    0.0000
    448 C453       27.3842   11.6033    7.2697 C         1 UNK    0.0000
    449 H454       27.4807   10.8058    7.7925 H         1 UNK    0.0000
    450 H455       26.6028   12.0825    7.5590 H         1 UNK    0.0000
    451 H456       28.1593   12.1565    7.3812 H         1 UNK    0.0000
    452 N457       24.8468    7.8342    5.6248 N         1 UNK    0.0000
    453 C458       27.2234   12.4749    5.1961 C         1 UNK    0.0000
    454 H459       28.0242   12.9251    5.5063 H         1 UNK    0.0000
    455 H460       26.4420   12.9444    5.5272 H         1 UNK    0.0000
    456 C461       28.6128   10.6257   -5.4505 C         1 UNK    0.0000
    457 H462       29.1659   11.0727   -6.1127 H         1 UNK    0.0000
    458 H463       28.9569   10.8701   -4.5758 H         1 UNK    0.0000
    459 C464       27.1109   12.3141   -0.8015 C         1 UNK    0.0000
    460 C465       25.9435   12.1533   -1.5369 C         1 UNK    0.0000
    461 H466       25.1298   12.0343   -1.0978 H         1 UNK    0.0000
    462 C467       25.9853   12.1726   -2.9239 C         1 UNK    0.0000
    463 H468       25.2038   12.0632   -3.4153 H         1 UNK    0.0000
    464 C469       27.1977   12.3494   -3.5791 C         1 UNK    0.0000
    465 C470       28.3683   12.5102   -2.8472 C         1 UNK    0.0000
    466 H471       29.1788   12.6292   -3.2864 H         1 UNK    0.0000
    467 C472       28.3265   12.4942   -1.4567 C         1 UNK    0.0000
    468 H473       29.1080   12.6003   -0.9653 H         1 UNK    0.0000
    469 C474       23.7759    7.8792   -3.5129 C         1 UNK    0.0000
    470 C475       24.0300    9.0723   -2.8472 C         1 UNK    0.0000
    471 H476       24.1457    9.8603   -3.3282 H         1 UNK    0.0000
    472 C477       24.1104    9.0916   -1.4602 C         1 UNK    0.0000
    473 H478       24.2808    9.8892   -1.0141 H         1 UNK    0.0000
    474 C479       23.9367    7.9178   -0.7353 C         1 UNK    0.0000
    475 C480       23.6826    6.7214   -1.4010 C         1 UNK    0.0000
    476 H481       23.5668    5.9367   -0.9200 H         1 UNK    0.0000
    477 C482       23.6022    6.7054   -2.7915 C         1 UNK    0.0000
    478 H483       23.4350    5.9046   -3.2341 H         1 UNK    0.0000
    479 C484       28.7864    9.1399   -5.6248 C         1 UNK    0.0000
    480 H485       29.5454    8.8794   -5.0776 H         1 UNK    0.0000
    481 H486       29.0469    8.9919   -6.5483 H         1 UNK    0.0000
    482 N487       27.7669    8.2523   -5.3495 N         1 UNK    0.0000
    483 C488       23.7051    8.0529   -4.8720 C         1 UNK    0.0000
    484 H489       23.0105    7.4676   -5.2101 H         1 UNK    0.0000
    485 H490       23.4125    8.9630   -5.0393 H         1 UNK    0.0000
    486 C491       27.8988    8.5835   -3.6871 C         1 UNK    0.0000
    487 H492       27.1527    8.1976   -3.2236 H         1 UNK    0.0000
    488 H493       28.7157    8.2072   -3.3491 H         1 UNK    0.0000
    489 H494       27.9052    9.5322   -3.5477 H         1 UNK    0.0000
    490 N495       27.2138   11.1724   -5.5690 N         1 UNK    0.0000
    491 C496       25.6605    6.4738   -5.4714 C         1 UNK    0.0000
    492 H497       25.4257    5.8338   -6.1615 H         1 UNK    0.0000
    493 H498       25.5254    6.0718   -4.6002 H         1 UNK    0.0000
    494 C499       27.0176    6.9594   -5.6318 C         1 UNK    0.0000
    495 H500       27.5450    6.2937   -5.1648 H         1 UNK    0.0000
    496 H501       27.1945    6.8051   -6.5727 H         1 UNK    0.0000
    497 C502       24.4191    7.8277   -7.3220 C         1 UNK    0.0000
    498 H503       25.2102    7.6959   -7.8517 H         1 UNK    0.0000
    499 H504       23.7952    7.1170   -7.4927 H         1 UNK    0.0000
    500 H505       24.0171    8.6671   -7.5555 H         1 UNK    0.0000
    501 C506       27.3842   11.6033   -7.2697 C         1 UNK    0.0000
    502 H507       27.4807   10.8058   -7.7925 H         1 UNK    0.0000
    503 H508       26.6028   12.0825   -7.5590 H         1 UNK    0.0000
    504 H509       28.1593   12.1565   -7.3812 H         1 UNK    0.0000
    505 N510       24.8468    7.8342   -5.6248 N         1 UNK    0.0000
    506 C511       27.2234   12.4749   -5.1961 C         1 UNK    0.0000
    507 H512       28.0242   12.9251   -5.5063 H         1 UNK    0.0000
    508 H513       26.4420   12.9444   -5.5272 H         1 UNK    0.0000
    509 O516       21.2322   24.5124   -6.5939 O         1 UNK    0.0000
    510 C517       18.6305   20.3316   -7.3572 C         1 UNK    0.0000
    511 O518       20.9942   24.4062   -8.9184 O         1 UNK    0.0000
    512 C519       19.2158   20.9362   -6.3535 C         1 UNK    0.0000
    513 H520       19.1740   20.5470   -5.5101 H         1 UNK    0.0000
    514 N521       15.6074   18.0482   -7.3397 N         1 UNK    0.0000
    515 C522       19.9973   17.6558   -7.3676 C         1 UNK    0.0000
    516 H523       20.5922   18.3698   -7.3293 H         1 UNK    0.0000
    517 C524       18.4793   17.8617   -7.3816 C         1 UNK    0.0000
    518 C525       19.8879   22.1100   -6.4964 C         1 UNK    0.0000
    519 H526       20.2964   22.4991   -5.7575 H         1 UNK    0.0000
    520 C527       17.8072   19.0516   -7.3537 C         1 UNK    0.0000
    521 C528       19.5020   22.0875   -8.7686 C         1 UNK    0.0000
    522 H529       19.6114   22.4316   -9.6259 H         1 UNK    0.0000
    523 C530       15.8036   20.4216   -7.4129 C         1 UNK    0.0000
    524 H531       16.1702   21.2771   -7.4408 H         1 UNK    0.0000
    525 C532       16.4372   19.0837   -7.3990 C         1 UNK    0.0000
    526 C533       20.9235   24.1168   -7.6917 C         1 UNK    0.0000
    527 C534       19.9651   22.7114   -7.6882 C         1 UNK    0.0000
    528 C535       18.8234   20.8397   -8.5177 C         1 UNK    0.0000
    529 H536       18.4986   20.3669   -9.2530 H         1 UNK    0.0000
    530 O537       24.5126   10.9280   -6.5939 O         1 UNK    0.0000
    531 C538       20.3318   13.5297   -7.3572 C         1 UNK    0.0000
    532 O539       24.4064   11.1660   -8.9184 O         1 UNK    0.0000
    533 C540       20.9364   12.9444   -6.3535 C         1 UNK    0.0000
    534 H541       20.5472   12.9862   -5.5101 H         1 UNK    0.0000
    535 N542       18.0484   16.5528   -7.3397 N         1 UNK    0.0000
    536 C543       17.6560   12.1629   -7.3676 C         1 UNK    0.0000
    537 H544       18.3700   11.5680   -7.3293 H         1 UNK    0.0000
    538 C545       17.8619   13.6809   -7.3816 C         1 UNK    0.0000
    539 C546       22.1102   12.2723   -6.4964 C         1 UNK    0.0000
    540 H547       22.4993   11.8638   -5.7575 H         1 UNK    0.0000
    541 C548       19.0518   14.3530   -7.3537 C         1 UNK    0.0000
    542 C549       22.0877   12.6582   -8.7686 C         1 UNK    0.0000
    543 H550       22.4318   12.5488   -9.6259 H         1 UNK    0.0000
    544 C551       20.4218   16.3566   -7.4129 C         1 UNK    0.0000
    545 H552       21.2773   15.9900   -7.4408 H         1 UNK    0.0000
    546 C553       19.0839   15.7230   -7.3990 C         1 UNK    0.0000
    547 C554       24.1170   11.2367   -7.6917 C         1 UNK    0.0000
    548 C555       22.7116   12.1951   -7.6882 C         1 UNK    0.0000
    549 C556       20.8399   13.3368   -8.5177 C         1 UNK    0.0000
    550 H557       20.3671   13.6616   -9.2530 H         1 UNK    0.0000
    551 O558        7.6478   21.2320   -6.5939 O         1 UNK    0.0000
    552 C559       11.8286   18.6303   -7.3572 C         1 UNK    0.0000
    553 O560        7.7540   20.9940   -8.9184 O         1 UNK    0.0000
    554 C561       11.2240   19.2156   -6.3535 C         1 UNK    0.0000
    555 H562       11.6132   19.1738   -5.5101 H         1 UNK    0.0000
    556 N563       14.1120   15.6072   -7.3397 N         1 UNK    0.0000
    557 C564       14.5044   19.9971   -7.3676 C         1 UNK    0.0000
    558 H565       13.7904   20.5920   -7.3293 H         1 UNK    0.0000
    559 C566       14.2985   18.4791   -7.3816 C         1 UNK    0.0000
    560 C567       10.0502   19.8877   -6.4964 C         1 UNK    0.0000
    561 H568        9.6611   20.2962   -5.7575 H         1 UNK    0.0000
    562 C569       13.1086   17.8070   -7.3537 C         1 UNK    0.0000
    563 C570       10.0727   19.5018   -8.7686 C         1 UNK    0.0000
    564 H571        9.7286   19.6112   -9.6259 H         1 UNK    0.0000
    565 C572       11.7386   15.8034   -7.4129 C         1 UNK    0.0000
    566 H573       10.8831   16.1700   -7.4408 H         1 UNK    0.0000
    567 C574       13.0765   16.4370   -7.3990 C         1 UNK    0.0000
    568 C575        8.0434   20.9233   -7.6917 C         1 UNK    0.0000
    569 C576        9.4488   19.9649   -7.6882 C         1 UNK    0.0000
    570 C577       11.3205   18.8232   -8.5177 C         1 UNK    0.0000
    571 H578       11.7933   18.4984   -9.2530 H         1 UNK    0.0000
    572 O579       10.9282    7.6476   -6.5939 O         1 UNK    0.0000
    573 C580       13.5299   11.8284   -7.3572 C         1 UNK    0.0000
    574 O581       11.1662    7.7538   -8.9184 O         1 UNK    0.0000
    575 C582       12.9446   11.2238   -6.3535 C         1 UNK    0.0000
    576 H583       12.9864   11.6130   -5.5101 H         1 UNK    0.0000
    577 N584       16.5530   14.1118   -7.3397 N         1 UNK    0.0000
    578 C585       12.1631   14.5042   -7.3676 C         1 UNK    0.0000
    579 H586       11.5682   13.7902   -7.3293 H         1 UNK    0.0000
    580 C587       13.6811   14.2983   -7.3816 C         1 UNK    0.0000
    581 C588       12.2725   10.0500   -6.4964 C         1 UNK    0.0000
    582 H589       11.8640    9.6609   -5.7575 H         1 UNK    0.0000
    583 C590       14.3532   13.1084   -7.3537 C         1 UNK    0.0000
    584 C591       12.6584   10.0725   -8.7686 C         1 UNK    0.0000
    585 H592       12.5490    9.7284   -9.6259 H         1 UNK    0.0000
    586 C593       16.3568   11.7384   -7.4129 C         1 UNK    0.0000
    587 H594       15.9902   10.8829   -7.4408 H         1 UNK    0.0000
    588 C595       15.7232   13.0763   -7.3990 C         1 UNK    0.0000
    589 C596       11.2369    8.0432   -7.6917 C         1 UNK    0.0000
    590 C597       12.1953    9.4486   -7.6882 C         1 UNK    0.0000
    591 C598       13.3370   11.3203   -8.5177 C         1 UNK    0.0000
    592 H599       13.6618   11.7931   -9.2530 H         1 UNK    0.0000
    593 H603       15.6261   17.6743   -2.6853 H         1 UNK    0.0000
    594 H604       17.1194   18.5398   -2.2874 H         1 UNK    0.0000
    595 H605       15.6343   19.4514   -2.6514 H         1 UNK    0.0000
    596 H606       16.2193   19.6860    0.9004 H         1 UNK    0.0000
    597 H607       16.2980   20.5104   -0.6663 H         1 UNK    0.0000
    598 H608       14.7220   20.1993    0.0876 H         1 UNK    0.0000
    599 H609       16.4545   15.6675   -1.9370 H         1 UNK    0.0000
    600 H610       18.5476   15.6000   -3.2969 H         1 UNK    0.0000
    601 H611       18.3823   15.8532   -5.7726 H         1 UNK    0.0000
    602 H612       14.2932   16.2341   -5.6014 H         1 UNK    0.0000
    603 H613       14.2574   15.4777    5.3800 H         1 UNK    0.0000
    604 H614       18.0079   17.1249    5.7238 H         1 UNK    0.0000
    605 H615       18.1080   17.6202    3.2823 H         1 UNK    0.0000
    606 H616       16.1524   17.0153    1.8504 H         1 UNK    0.0000
    607 H617       10.2491   17.3888   -4.2310 H         1 UNK    0.0000
    608 H618       10.2496   15.7078   -4.7160 H         1 UNK    0.0000
    609 H619        8.6977   15.1009   -2.9428 H         1 UNK    0.0000
    610 H620        8.0652   16.5703   -3.6731 H         1 UNK    0.0000
    611 H621        8.0198   16.7998   -1.1933 H         1 UNK    0.0000
    612 H622        9.2100   17.9142   -1.8520 H         1 UNK    0.0000
    613 H623       10.2259   16.7560    0.0575 H         1 UNK    0.0000
    614 H624        9.6922   15.2064   -0.5365 H         1 UNK    0.0000
    615 H625       10.6595   13.4453    0.2168 H         1 UNK    0.0000
    616 H626       10.1107   14.9835   -0.3758 H         1 UNK    0.0000
    617 H627        8.5801   15.2540    1.5410 H         1 UNK    0.0000
    618 H628        8.3191   13.6748    0.8121 H         1 UNK    0.0000
    619 H629        8.4448   13.4535    3.2966 H         1 UNK    0.0000
    620 H630        9.8152   12.6414    2.5510 H         1 UNK    0.0000
    621 H631       10.6771   13.9806    4.4074 H         1 UNK    0.0000
    622 H632        9.7689   15.3845    3.8897 H         1 UNK    0.0000
    623 H633       12.7163   16.0855   -4.7128 H         1 UNK    0.0000
    624 H634       12.6582   15.3811    4.4761 H         1 UNK    0.0000
    625 C635       16.0381   18.5514   -2.1734 C         1 UNK    0.0000
    626 C636       15.7276   19.7928   -0.0731 C         1 UNK    0.0000
    627 N637       15.6821   18.5015   -0.7565 N         1 UNK    0.0000
    628 P638       15.4932   17.1326    0.1934 P         1 UNK    0.0000
    629 C639       16.4174   15.7700   -3.0133 C         1 UNK    0.0000
    630 C640       17.5818   15.7369   -3.7695 C         1 UNK    0.0000
    631 C641       17.4903   15.8775   -5.1527 C         1 UNK    0.0000
    632 N642       16.3310   16.0502   -5.7932 N         1 UNK    0.0000
    633 C643       15.2196   16.0778   -5.0549 C         1 UNK    0.0000
    634 C644       15.0882   15.9705    4.8826 C         1 UNK    0.0000
    635 N645       16.1256   16.2889    5.6585 N         1 UNK    0.0000
    636 C646       17.1755   16.8713    5.0731 C         1 UNK    0.0000
    637 C647       17.2307   17.1477    3.7092 C         1 UNK    0.0000
    638 C648       16.1425   16.8134    2.9134 C         1 UNK    0.0000
    639 C649       15.1850   15.9380   -3.6587 C         1 UNK    0.0000
    640 C650       15.0232   16.2115    3.5016 C         1 UNK    0.0000
    641 O651       14.9788   15.8284   -0.7888 O         1 UNK    0.0000
    642 C652       10.2120   16.3635   -3.8401 C         1 UNK    0.0000
    643 C653        8.8955   16.1707   -3.0833 C         1 UNK    0.0000
    644 C654        8.9794   16.8505   -1.7163 C         1 UNK    0.0000
    645 C655       10.0630   16.1859   -0.8608 C         1 UNK    0.0000
    646 C656       10.3209   14.4385    0.5435 C         1 UNK    0.0000
    647 C657        9.0436   14.2737    1.3722 C         1 UNK    0.0000
    648 C658        9.3593   13.6243    2.7206 C         1 UNK    0.0000
    649 C659       10.3197   14.5093    3.5189 C         1 UNK    0.0000
    650 C660       13.8149   15.8613   -1.5305 C         1 UNK    0.0000
    651 C661       13.8924   15.9430   -2.9319 C         1 UNK    0.0000
    652 C662       12.6884   16.0499   -3.6283 C         1 UNK    0.0000
    653 C663       11.4501   16.1300   -2.9882 C         1 UNK    0.0000
    654 C664       11.3892   16.0249   -1.5896 C         1 UNK    0.0000
    655 O665       13.9619   17.5579    0.7885 O         1 UNK    0.0000
    656 C666       12.5852   15.8195   -0.8630 C         1 UNK    0.0000
    657 C667       12.6540   15.4176    3.3916 C         1 UNK    0.0000
    658 C668       13.8033   15.8620    2.7342 C         1 UNK    0.0000
    659 C669       13.7416   15.9379    1.3347 C         1 UNK    0.0000
    660 C670       12.5826   15.6134    0.6208 C         1 UNK    0.0000
    661 C671       11.4749   15.0701    1.3075 C         1 UNK    0.0000
    662 C672       11.5107   14.9999    2.7107 C         1 UNK    0.0000
    663 Pd1         9.6457    6.1567    5.5837 PD        2 MT1    0.0000
    664 Zn1        16.0800   16.0800    7.4982 Zn        3 MT2    0.0000
    665 Pd3        22.5143   26.0033    5.5837 PD        4 MT3    0.0000
    666 Pd4         6.1567   22.5143    5.5837 PD        5 MT4    0.0000
    667 Pd5        26.0033    9.6457    5.5837 PD        6 MT5    0.0000
    668 Pd6        22.5143   26.0033   -5.5837 PD        7 MT6    0.0000
    669 Zn2        16.0802   16.0800   -7.5018 Zn        8 MT7    0.0000
    670 Pd7         9.6457    6.1567   -5.5837 PD        9 MT8    0.0000
    671 Pd8        26.0033    9.6457   -5.5837 PD       10 MT9    0.0000
    672 Pd9         6.1567   22.5143   -5.5837 PD       11 M10    0.0000
@<TRIPOS>BOND
     1    1   45 2
     2    2    4 2
     3    2   25 1
     4    2   47 2
     5    3   45 2
     6    4    5 1
     7    4   13 2
     8    6   44 Ar
     9    6  104 Ar
    10    7    8 1
    11    7   12 1
    12    7   89 2
    13    9   10 1
    14    9   11 1
    15    9   38 1
    16    9   56 1
    17   12   25 2
    18   12   80 Ar
    19   13   14 1
    20   13   46 2
    21   15   16 Ar
    22   15   23 Ar
    23   15  141 1
    24   16   17 1
    25   16   18 Ar
    26   18   19 1
    27   18   20 Ar
    28   20   21 Ar
    29   20   72 1
    30   21   22 1
    31   21   23 Ar
    32   23   24 1
    33   25   44 2
    34   26   27 Ar
    35   26   34 Ar
    36   26   49 2
    37   27   28 1
    38   27   29 Ar
    39   29   30 1
    40   29   31 Ar
    41   31   32 Ar
    42   31  156 1
    43   32   33 1
    44   32   34 Ar
    45   34   35 1
    46   36   37 1
    47   36   46 2
    48   36   47 Ar
    49   38   39 1
    50   38   40 1
    51   38   43 Ar
    52   41   42 1
    53   41   44 1
    54   41  102 2
    55   43   60 1
    56   47   48 1
    57   49   50 1
    58   49   51 1
    59   49   71 1
    60   52   53 1
    61   52   54 1
    62   52   55 1
    63   56   72 Ar
    64   57   58 1
    65   57   59 1
    66   57   60 1
    67   60   61 1
    68   60   62 1
    69   63   64 1
    70   63   65 1
    71   63   66 1
    72   67   68 1
    73   67   69 1
    74   67   70 1
    75   72   73 1
    76   72   74 1
    77   75   92 2
    78   76   78 2
    79   76   86 1
    80   76   94 2
    81   77   92 2
    82   78   79 1
    83   78   84 2
    84   80   91 Ar
    85   81   82 1
    86   81   83 1
    87   81  131 2
    88   83   86 2
    89   83  122 Ar
    90   84   85 1
    91   84   93 2
    92   86   91 2
    93   87   88 1
    94   87   93 2
    95   87   94 Ar
    96   89   90 1
    97   89   91 1
    98   94   95 1
    99   96  113 2
   100   97   99 2
   101   97  107 1
   102   97  115 2
   103   98  113 2
   104   99  100 1
   105   99  105 2
   106  101  112 Ar
   107  101  125 Ar
   108  102  103 1
   109  102  104 1
   110  104  107 2
   111  105  106 1
   112  105  114 2
   113  107  112 2
   114  108  109 1
   115  108  114 2
   116  108  115 Ar
   117  110  111 1
   118  110  112 1
   119  110  123 2
   120  115  116 1
   121  117  134 2
   122  118  120 2
   123  118  128 1
   124  118  136 2
   125  119  134 2
   126  120  121 1
   127  120  126 2
   128  122  133 Ar
   129  123  124 1
   130  123  125 1
   131  125  128 2
   132  126  127 1
   133  126  135 2
   134  128  133 2
   135  129  130 1
   136  129  135 2
   137  129  136 Ar
   138  131  132 1
   139  131  133 1
   140  136  137 1
   141  138  139 1
   142  138  140 1
   143  138  161 1
   144  138  172 1
   145  141  142 Ar
   146  141  149 Ar
   147  142  143 1
   148  142  144 Ar
   149  144  145 1
   150  144  146 Ar
   151  146  147 Ar
   152  146  188 1
   153  147  148 1
   154  147  149 Ar
   155  149  150 1
   156  151  152 Ar
   157  151  159 Ar
   158  151  165 2
   159  152  153 1
   160  152  154 Ar
   161  154  155 1
   162  154  156 Ar
   163  156  157 Ar
   164  157  158 1
   165  157  159 Ar
   166  159  160 1
   167  161  162 1
   168  161  163 1
   169  161  164 Ar
   170  164  176 1
   171  165  166 1
   172  165  167 1
   173  165  187 1
   174  168  169 1
   175  168  170 1
   176  168  171 1
   177  172  188 Ar
   178  173  174 1
   179  173  175 1
   180  173  176 1
   181  176  177 1
   182  176  178 1
   183  179  180 1
   184  179  181 1
   185  179  182 1
   186  183  184 1
   187  183  185 1
   188  183  186 1
   189  188  189 1
   190  188  190 1
   191  191  192 1
   192  191  193 1
   193  191  214 1
   194  191  225 1
   195  194  195 Ar
   196  194  202 Ar
   197  194  247 1
   198  195  196 1
   199  195  197 Ar
   200  197  198 1
   201  197  199 Ar
   202  199  200 Ar
   203  199  241 1
   204  200  201 1
   205  200  202 Ar
   206  202  203 1
   207  204  205 Ar
   208  204  212 Ar
   209  204  218 2
   210  205  206 1
   211  205  207 Ar
   212  207  208 1
   213  207  209 Ar
   214  209  210 Ar
   215  209  262 1
   216  210  211 1
   217  210  212 Ar
   218  212  213 1
   219  214  215 1
   220  214  216 1
   221  214  217 Ar
   222  217  229 1
   223  218  219 1
   224  218  220 1
   225  218  240 1
   226  221  222 1
   227  221  223 1
   228  221  224 1
   229  225  241 Ar
   230  226  227 1
   231  226  228 1
   232  226  229 1
   233  229  230 1
   234  229  231 1
   235  232  233 1
   236  232  234 1
   237  232  235 1
   238  236  237 1
   239  236  238 1
   240  236  239 1
   241  241  242 1
   242  241  243 1
   243  244  245 1
   244  244  246 1
   245  244  267 1
   246  244  278 1
   247  247  248 Ar
   248  247  255 Ar
   249  248  249 1
   250  248  250 Ar
   251  250  251 1
   252  250  252 Ar
   253  252  253 Ar
   254  252  294 1
   255  253  254 1
   256  253  255 Ar
   257  255  256 1
   258  257  258 Ar
   259  257  265 Ar
   260  257  271 2
   261  258  259 1
   262  258  260 Ar
   263  260  261 1
   264  260  262 Ar
   265  262  263 Ar
   266  263  264 1
   267  263  265 Ar
   268  265  266 1
   269  267  268 1
   270  267  269 1
   271  267  270 Ar
   272  270  282 1
   273  271  272 1
   274  271  273 1
   275  271  293 1
   276  274  275 1
   277  274  276 1
   278  274  277 1
   279  278  294 Ar
   280  279  280 1
   281  279  281 1
   282  279  282 1
   283  282  283 1
   284  282  284 1
   285  285  286 1
   286  285  287 1
   287  285  288 1
   288  289  290 1
   289  289  291 1
   290  289  292 1
   291  294  295 1
   292  294  296 1
   293  297  298 1
   294  297  299 1
   295  297  320 1
   296  297  331 1
   297  300  301 Ar
   298  300  308 Ar
   299  300  353 1
   300  301  302 1
   301  301  303 Ar
   302  303  304 1
   303  303  305 Ar
   304  305  306 Ar
   305  305  347 1
   306  306  307 1
   307  306  308 Ar
   308  308  309 1
   309  310  311 Ar
   310  310  318 Ar
   311  310  324 2
   312  311  312 1
   313  311  313 Ar
   314  313  314 1
   315  313  315 Ar
   316  315  316 Ar
   317  315  368 1
   318  316  317 1
   319  316  318 Ar
   320  318  319 1
   321  320  321 1
   322  320  322 1
   323  320  323 Ar
   324  323  335 1
   325  324  325 1
   326  324  326 1
   327  324  346 1
   328  327  328 1
   329  327  329 1
   330  327  330 1
   331  331  347 Ar
   332  332  333 1
   333  332  334 1
   334  332  335 1
   335  335  336 1
   336  335  337 1
   337  338  339 1
   338  338  340 1
   339  338  341 1
   340  342  343 1
   341  342  344 1
   342  342  345 1
   343  347  348 1
   344  347  349 1
   345  350  351 1
   346  350  352 1
   347  350  373 1
   348  350  384 1
   349  353  354 Ar
   350  353  361 Ar
   351  354  355 1
   352  354  356 Ar
   353  356  357 1
   354  356  358 Ar
   355  358  359 Ar
   356  358  400 1
   357  359  360 1
   358  359  361 Ar
   359  361  362 1
   360  363  364 Ar
   361  363  371 Ar
   362  363  377 2
   363  364  365 1
   364  364  366 Ar
   365  366  367 1
   366  366  368 Ar
   367  368  369 Ar
   368  369  370 1
   369  369  371 Ar
   370  371  372 1
   371  373  374 1
   372  373  375 1
   373  373  376 Ar
   374  376  388 1
   375  377  378 1
   376  377  379 1
   377  377  399 1
   378  380  381 1
   379  380  382 1
   380  380  383 1
   381  384  400 Ar
   382  385  386 1
   383  385  387 1
   384  385  388 1
   385  388  389 1
   386  388  390 1
   387  391  392 1
   388  391  393 1
   389  391  394 1
   390  395  396 1
   391  395  397 1
   392  395  398 1
   393  400  401 1
   394  400  402 1
   395  403  404 1
   396  403  405 1
   397  403  426 1
   398  403  437 1
   399  406  407 Ar
   400  406  414 Ar
   401  406  459 1
   402  407  408 1
   403  407  409 Ar
   404  409  410 1
   405  409  411 Ar
   406  411  412 Ar
   407  411  453 1
   408  412  413 1
   409  412  414 Ar
   410  414  415 1
   411  416  417 Ar
   412  416  424 Ar
   413  416  430 2
   414  417  418 1
   415  417  419 Ar
   416  419  420 1
   417  419  421 Ar
   418  421  422 Ar
   419  421  474 1
   420  422  423 1
   421  422  424 Ar
   422  424  425 1
   423  426  427 1
   424  426  428 1
   425  426  429 Ar
   426  429  441 1
   427  430  431 1
   428  430  432 1
   429  430  452 1
   430  433  434 1
   431  433  435 1
   432  433  436 1
   433  437  453 Ar
   434  438  439 1
   435  438  440 1
   436  438  441 1
   437  441  442 1
   438  441  443 1
   439  444  445 1
   440  444  446 1
   441  444  447 1
   442  448  449 1
   443  448  450 1
   444  448  451 1
   445  453  454 1
   446  453  455 1
   447  456  457 1
   448  456  458 1
   449  456  479 1
   450  456  490 1
   451  459  460 Ar
   452  459  467 Ar
   453  460  461 1
   454  460  462 Ar
   455  462  463 1
   456  462  464 Ar
   457  464  465 Ar
   458  464  506 1
   459  465  466 1
   460  465  467 Ar
   461  467  468 1
   462  469  470 Ar
   463  469  477 Ar
   464  469  483 2
   465  470  471 1
   466  470  472 Ar
   467  472  473 1
   468  472  474 Ar
   469  474  475 Ar
   470  475  476 1
   471  475  477 Ar
   472  477  478 1
   473  479  480 1
   474  479  481 1
   475  479  482 Ar
   476  482  494 1
   477  483  484 1
   478  483  485 1
   479  483  505 1
   480  486  487 1
   481  486  488 1
   482  486  489 1
   483  490  506 Ar
   484  491  492 1
   485  491  493 1
   486  491  494 1
   487  494  495 1
   488  494  496 1
   489  497  498 1
   490  497  499 1
   491  497  500 1
   492  501  502 1
   493  501  503 1
   494  501  504 1
   495  506  507 1
   496  506  508 1
   497  509  526 2
   498  510  512 2
   499  510  520 1
   500  510  528 2
   501  511  526 2
   502  512  513 1
   503  512  518 2
   504  514  525 Ar
   505  514  559 Ar
   506  515  516 1
   507  515  517 1
   508  515  544 2
   509  517  520 2
   510  517  535 Ar
   511  518  519 1
   512  518  527 2
   513  520  525 2
   514  521  522 1
   515  521  527 2
   516  521  528 Ar
   517  523  524 1
   518  523  525 1
   519  523  557 2
   520  528  529 1
   521  530  547 2
   522  531  533 2
   523  531  541 1
   524  531  549 2
   525  532  547 2
   526  533  534 1
   527  533  539 2
   528  535  546 Ar
   529  536  537 1
   530  536  538 1
   531  536  586 2
   532  538  541 2
   533  538  577 Ar
   534  539  540 1
   535  539  548 2
   536  541  546 2
   537  542  543 1
   538  542  548 2
   539  542  549 Ar
   540  544  545 1
   541  544  546 1
   542  549  550 1
   543  551  568 2
   544  552  554 2
   545  552  562 1
   546  552  570 2
   547  553  568 2
   548  554  555 1
   549  554  560 2
   550  556  567 Ar
   551  556  580 Ar
   552  557  558 1
   553  557  559 1
   554  559  562 2
   555  560  561 1
   556  560  569 2
   557  562  567 2
   558  563  564 1
   559  563  569 2
   560  563  570 Ar
   561  565  566 1
   562  565  567 1
   563  565  578 2
   564  570  571 1
   565  572  589 2
   566  573  575 2
   567  573  583 1
   568  573  591 2
   569  574  589 2
   570  575  576 1
   571  575  581 2
   572  577  588 Ar
   573  578  579 1
   574  578  580 1
   575  580  583 2
   576  581  582 1
   577  581  590 2
   578  583  588 2
   579  584  585 1
   580  584  590 2
   581  584  591 Ar
   582  586  587 1
   583  586  588 1
   584  591  592 1
   585  593  625 1
   586  594  625 1
   587  595  625 1
   588  596  626 1
   589  597  626 1
   590  598  626 1
   591  599  629 1
   592  600  630 1
   593  601  631 1
   594  602  633 1
   595  603  634 1
   596  604  636 1
   597  605  637 1
   598  606  638 1
   599  607  642 1
   600  608  642 1
   601  609  643 1
   602  610  643 1
   603  611  644 1
   604  612  644 1
   605  613  645 1
   606  614  616 1
   607  614  645 1
   608  615  646 1
   609  616  646 1
   610  617  647 1
   611  618  647 1
   612  619  648 1
   613  620  648 1
   614  621  649 1
   615  622  649 1
   616  623  652 1
   617  624  657 1
   618  625  627 1
   619  626  627 1
   620  627  628 1
   621  628  641 1
   622  628  655 1
   623  629  630 Ar
   624  629  639 Ar
   625  630  631 Ar
   626  631  632 Ar
   627  632  633 Ar
   628  633  639 Ar
   629  634  635 Ar
   630  634  640 Ar
   631  635  636 Ar
   632  636  637 Ar
   633  637  638 Ar
   634  638  640 Ar
   635  639  651 1
   636  640  658 1
   637  641  650 1
   638  642  643 1
   639  642  653 1
   640  643  644 1
   641  644  645 1
   642  645  654 1
   643  646  647 1
   644  646  661 1
   645  647  648 1
   646  648  649 1
   647  649  662 1
   648  650  651 Ar
   649  650  656 Ar
   650  651  652 Ar
   651  652  653 Ar
   652  653  654 Ar
   653  654  656 Ar
   654  656  660 1
   655  657  658 Ar
   656  657  662 Ar
   657  658  659 Ar
   658  659  660 Ar
   659  660  661 Ar
   660  661  662 Ar
@<TRIPOS>SUBSTRUCTURE
     1 UNK     1 RESIDUE           4 A     UNK     0 ROOT
     2 MT1   663 RESIDUE           4 A     MT1     0 ROOT
     3 MT2   664 RESIDUE           4 A     MT2     0 ROOT
     4 MT3   665 RESIDUE           4 A     MT3     0 ROOT
     5 MT4   666 RESIDUE           4 A     MT4     0 ROOT
     6 MT5   667 RESIDUE           4 A     MT5     0 ROOT
     7 MT6   668 RESIDUE           4 A     MT6     0 ROOT
     8 MT7   669 RESIDUE           4 A     MT7     0 ROOT
     9 MT8   670 RESIDUE           4 A     MT8     0 ROOT
    10 MT9   671 RESIDUE           4 A     MT9     0 ROOT
    11 M10   672 RESIDUE           4 A     M10     0 ROOT
